LAMMPS (22 Jul 2025)

# LAMMPS input script for rock particle segmentation dataset
# Approach: Particle-based conveyor floor. Periodic boundaries in X/Y.
# 10 mixed rock templates for size/shape variation.

# --- Initialization ---
units       cgs
atom_style  hybrid sphere molecular
boundary    p p f
newton      off
comm_modify vel yes

# --- Region & Box ---
# Create a box
region      reg block -10 10 -10 10 -2 20 units box
create_box  2 reg  # 2 types: 1=rocks, 2=floor
Created orthogonal box = (-10 -10 -2) to (10 10 20)

# --- Interactions ---
# Granular pair style
pair_style  granular
pair_coeff  * * hertz/material 1e8 0.3 0.3 tangential mindlin NULL 1.0 0.5 damping tsuji

# --- Floor Generation (Conveyor) ---
# Create a dense layer of particles at the bottom
lattice     sc 0.5
Lattice spacing in x,y,z = 0.5 0.5 0.5
region      floor_reg block -10 10 -10 10 -1.0 0.0 units box
create_atoms 2 region floor_reg
Created 4800 atoms

group       floor type 2
4800 atoms in group floor
set         group floor diameter 0.5
Setting atom values ...
  4800 settings made for diameter
set         group floor density 2.5
Setting atom values ...
  4800 settings made for density

# Move the floor to simulate conveyor
# velocity = 5.0 in x direction
fix         conveyor floor move linear 5.0 0.0 0.0 units box

# --- Templates for Rocks ---
# Load all 10 templates
molecule    rock1 rock1.mol
Read molecule template rock1:
# Rock template 1 (Approx Size: 2.1 cm)
  1 molecules
  0 fragments
  0 bodies
  3 atoms with max type 1
  0 bonds with max type 0
  0 angles with max type 0
  0 dihedrals with max type 0
  0 impropers with max type 0
molecule    rock2 rock2.mol
Read molecule template rock2:
# Rock template 2 (Approx Size: 1.7 cm)
  1 molecules
  0 fragments
  0 bodies
  5 atoms with max type 1
  0 bonds with max type 0
  0 angles with max type 0
  0 dihedrals with max type 0
  0 impropers with max type 0
molecule    rock3 rock3.mol
Read molecule template rock3:
# Rock template 3 (Approx Size: 2.1 cm)
  1 molecules
  0 fragments
  0 bodies
  3 atoms with max type 1
  0 bonds with max type 0
  0 angles with max type 0
  0 dihedrals with max type 0
  0 impropers with max type 0
molecule    rock4 rock4.mol
Read molecule template rock4:
# Rock template 4 (Approx Size: 2.2 cm)
  1 molecules
  0 fragments
  0 bodies
  3 atoms with max type 1
  0 bonds with max type 0
  0 angles with max type 0
  0 dihedrals with max type 0
  0 impropers with max type 0
molecule    rock5 rock5.mol
Read molecule template rock5:
# Rock template 5 (Approx Size: 1.9 cm)
  1 molecules
  0 fragments
  0 bodies
  5 atoms with max type 1
  0 bonds with max type 0
  0 angles with max type 0
  0 dihedrals with max type 0
  0 impropers with max type 0
molecule    rock6 rock6.mol
Read molecule template rock6:
# Rock template 6 (Approx Size: 3.5 cm)
  1 molecules
  0 fragments
  0 bodies
  6 atoms with max type 1
  0 bonds with max type 0
  0 angles with max type 0
  0 dihedrals with max type 0
  0 impropers with max type 0
molecule    rock7 rock7.mol
Read molecule template rock7:
# Rock template 7 (Approx Size: 3.3 cm)
  1 molecules
  0 fragments
  0 bodies
  8 atoms with max type 1
  0 bonds with max type 0
  0 angles with max type 0
  0 dihedrals with max type 0
  0 impropers with max type 0
molecule    rock8 rock8.mol
Read molecule template rock8:
# Rock template 8 (Approx Size: 4.8 cm)
  1 molecules
  0 fragments
  0 bodies
  5 atoms with max type 1
  0 bonds with max type 0
  0 angles with max type 0
  0 dihedrals with max type 0
  0 impropers with max type 0
molecule    rock9 rock9.mol
Read molecule template rock9:
# Rock template 9 (Approx Size: 3.3 cm)
  1 molecules
  0 fragments
  0 bodies
  9 atoms with max type 1
  0 bonds with max type 0
  0 angles with max type 0
  0 dihedrals with max type 0
  0 impropers with max type 0
molecule    rock10 rock10.mol
Read molecule template rock10:
# Rock template 10 (Approx Size: 3.2 cm)
  1 molecules
  0 fragments
  0 bodies
  8 atoms with max type 1
  0 bonds with max type 0
  0 angles with max type 0
  0 dihedrals with max type 0
  0 impropers with max type 0

# --- Particle Insertion ---
group       rocks type 1
0 atoms in group rocks

# Fix rigid for rocks
fix         rigid rocks rigid/small molecule
Fix rigid/small setup ...
  0 rigid bodies with 0 atoms

# Pour command
# Pour 50 rocks total (5 of each type)
region      pour_reg block -8 8 -8 8 5 15 units box

# Pour 5 rocks of each template
fix         ins1 rocks pour 5 0 10001 region pour_reg mol rock1
fix         ins2 rocks pour 5 0 20002 region pour_reg mol rock2
fix         ins3 rocks pour 5 0 30003 region pour_reg mol rock3
fix         ins4 rocks pour 5 0 40004 region pour_reg mol rock4
fix         ins5 rocks pour 5 0 50005 region pour_reg mol rock5
fix         ins6 rocks pour 5 0 60006 region pour_reg mol rock6
fix         ins7 rocks pour 5 0 70007 region pour_reg mol rock7
fix         ins8 rocks pour 5 0 80008 region pour_reg mol rock8
fix         ins9 rocks pour 5 0 90009 region pour_reg mol rock9
fix         ins10 rocks pour 5 0 10010 region pour_reg mol rock10

# --- Physics ---
fix         grav all gravity 980.0 vector 0.0 0.0 -1.0

# --- Run Settings ---
timestep    0.0001
thermo      1000

# --- Run 1: Pour and Settle ---
run         5000
Generated 0 of 1 mixed pair_coeff terms from geometric mixing rule
Particle insertion: 55 every 1429 steps, 5 by step 1
Particle insertion: 180 every 1429 steps, 5 by step 1
Particle insertion: 30 every 1429 steps, 5 by step 1
Particle insertion: 30 every 1429 steps, 5 by step 1
Particle insertion: 70 every 1429 steps, 5 by step 1
Particle insertion: 6 every 1429 steps, 5 by step 1
Particle insertion: 12 every 1429 steps, 5 by step 1
Particle insertion: 3 every 1429 steps, 5 by step 1430
Particle insertion: 8 every 1429 steps, 5 by step 1
Particle insertion: 17 every 1429 steps, 5 by step 1
Step          Temp          E_pair         E_mol          TotEng         Press
0   0              0              0              0              0
Loop time of 6.20356 on 1 procs for 5000 steps with 5033 atoms

# Unfix all pour commands
unfix       ins1
unfix       ins2
unfix       ins3
unfix       ins4
unfix       ins5
unfix       ins6
unfix       ins7
unfix       ins8
unfix       ins9
unfix       ins10

# Allow some settling time
run         5000
Generated 0 of 1 mixed pair_coeff terms from geometric mixing rule
Step          Temp          E_pair         E_mol          TotEng         Press
5000   1.2762987e+19  0              0              13300499       1673133.6
Loop time of 4.26881 on 1 procs for 5000 steps with 5033 atoms

# --- Imaging ---
# Setup output
# View 1: Top Down
dump        img1 rocks image 500 image_top_*.jpg type type view 0 0 zoom 1.2 adiam 1.0

# View 2: Side Profile
dump        img2 rocks image 500 image_side_*.jpg type type view 90 0 zoom 1.2 adiam 1.0

# View 3: Angled
dump        img3 rocks image 500 image_angle_*.jpg type type view 60 30 zoom 1.2 adiam 1.0

# Run the conveyor phase
run         5000
Generated 0 of 1 mixed pair_coeff terms from geometric mixing rule
Step          Temp          E_pair         E_mol          TotEng         Press
10000   1.2762987e+19  0              0              13300499       1673133.6
Loop time of 3.84358 on 1 procs for 5000 steps with 5033 atoms
